# ====================
# | Model parameters |
# ====================
#
# Continuous equation parameters
 &PARM01
 Tref = 28.687509,28.687509,28.687509,28.687509,
        28.935628,28.935628,28.935628,28.935628,
        28.862881,28.862881,28.862881,28.862881,
        27.929026,27.929026,27.929026,27.929026,
        26.751270,26.751270,26.751270,26.751270,
        25.132383,25.132383,25.132383,25.132383,
        23.816296,23.816296,23.816296,23.816296,
        23.082976,23.082976,23.082976,23.082976,
        22.126906,22.126906,22.126906,22.126906,
        21.192580,21.192580,21.192580,21.192580,
        19.895892,19.895892,19.895892,19.895892,
        19.656542,19.656542,19.656542,19.656542,
        19.309957,19.309957,19.309957,19.309957,
        19.196275,19.196275,19.196275,19.196275,
        18.924238,18.924238,18.924238,18.924238,
        18.641661,18.641661,18.641661,18.641661,
        18.389037,18.389037,18.389037,18.389037,
        18.059670,18.059670,18.059670,18.059670,
        17.808009,17.808009,17.808009,17.808009,
        17.454269,17.454269,17.454269,17.454269,
        16.658887,16.658887,16.658887,16.658887,
        15.977303,15.977303,15.977303,15.977303,
        15.697758,15.697758,15.697758,15.697758,
        15.060761,15.060761,15.060761,15.060761,
        14.896161,14.896161,14.896161,14.896161,
        14.778761,14.778761,14.778761,14.778761,
        14.602151,14.602151,14.602151,14.602151,
        14.419689,14.419689,14.419689,14.419689,
        14.213075,14.213075,14.213075,14.213075,
        14.133052,14.133052,14.133052,14.133052,
        13.955415,13.955415,13.955415,13.955415,
        13.497712,13.497712,13.497712,13.497712,
        13.441021,13.441021,13.441021,13.441021,
        13.368302,13.368302,13.368302,13.368302,
        12.899835,12.899835,12.899835,12.899835,
        12.680457,12.680457,12.680457,12.680457,
        12.607261,12.607261,12.607261,12.607261,
        12.452048,12.452048,12.452048,12.452048,
        12.388470,12.388470,12.388470,12.388470,
        12.231093,12.231093,12.231093,12.231093,
        12.023445,12.023445,12.023445,12.023445,
        11.839699,11.839699,11.839699,11.839699,
        11.366123,11.366123,11.366123,11.366123,
        11.224807,11.224807,11.224807,11.224807,
        11.042090,11.042090,11.042090,11.042090,
        10.847365,10.847365,10.847365,10.847365,
        10.605097,10.605097,10.605097,10.605097,
        10.471456,10.471456,10.471456,10.471456,
        10.297125,10.297125,10.297125,10.297125,
        10.093774,10.093774,10.093774,10.093774,
 sRef= 200*35.,
 viscAz=1.E-3,
 viscAh=1.E-2,
 no_slip_sides=.FALSE.,
 no_slip_bottom=.FALSE.,
 diffKhT=1.E-2
 diffKzT=1.E-3,
 f0=0.0,
 beta=0.E-11,
 eosType='LINEAR',
 tAlpha=2.E-4,
 sBeta =0.E-4,
 gravity=9.81,
 implicitFreeSurface=.TRUE.,
 exactConserv=.TRUE.
 nonHydrostatic=.FALSE.,
 hFacMin=0.2,
 implicSurfPress=0.5,
 implicDiv2DFlow=0.5,
 nonlinFreeSurf=3,
 hFacInf=0.2,
 hFacSup=1.8,
 saltStepping=.FALSE.,
#- not safe to use globalFiles in multi-processors runs
#globalFiles=.TRUE.,
 readBinaryPrec=64,
 writeBinaryPrec=64,
 writeStatePrec=64,
 &

# Elliptic solver parameters
 &PARM02
 cg2dMaxIters=1000,
 cg2dTargetResidual=1.E-13,
 cg3dMaxIters=400,
 cg3dTargetResidual=1.E-13,
 &

# Time stepping parameters
 &PARM03
 nIter0=0,
 nTimeSteps=1000000,
 deltaT=0.1,
 abEps=0.1,
 pChkptFreq=0.,
 chkptFreq=0.,
 dumpFreq=200.,
 monitorFreq=2500.,
 monitorSelect=2,
 &

# Gridding parameters
 &PARM04
 usingCartesianGrid=.TRUE.,
 delXfile='delXvar',
 delY=5.E3,
 delZ=200*2.,
 &

# Input datasets
 &PARM05
 hydrogThetaFile='T.init',
 bathyFile='topog.slope',
 &
